Version 4
SHEET 1 880 680
WIRE 112 -64 112 -112
WIRE 288 -64 112 -64
WIRE 464 -64 464 -112
WIRE 640 -64 464 -64
WIRE 64 32 -16 32
WIRE 240 32 64 32
WIRE 416 32 240 32
WIRE 592 32 416 32
WIRE 112 64 112 -64
WIRE 288 64 288 -64
WIRE 464 64 464 -64
WIRE 640 64 640 -64
WIRE 64 80 64 32
WIRE 240 80 240 32
WIRE 416 80 416 32
WIRE 592 80 592 32
WIRE 64 176 64 128
WIRE 64 176 -16 176
WIRE 240 176 240 128
WIRE 240 176 64 176
WIRE 416 176 416 128
WIRE 416 176 240 176
WIRE 592 176 592 128
WIRE 592 176 416 176
WIRE 112 224 112 144
WIRE 288 224 288 144
WIRE 464 224 464 144
WIRE 640 224 640 144
FLAG -16 176 1
FLAG -16 32 2
FLAG 112 -112 3
FLAG 464 -112 6
FLAG 112 224 4
FLAG 288 224 5
FLAG 464 224 7
FLAG 640 224 8
SYMBOL sw 112 48 R0
SYMATTR InstName S1
SYMATTR Value Relay1NO
SYMBOL sw 288 48 R0
SYMATTR InstName S2
SYMATTR Value Relay1NC
SYMBOL sw 464 48 R0
SYMATTR InstName S3
SYMATTR Value Relay2NO
SYMBOL sw 640 48 R0
SYMATTR InstName S4
SYMATTR Value Relay2NC
TEXT -112 320 Left 2 !.model Relay1NO SW(Ron=.1 Roff=1G Vt=Vt)
TEXT -112 352 Left 2 !.model Relay1NC SW(Ron=1G Roff=.1 Vt=Vt)
TEXT -112 384 Left 2 !.model Relay2NO SW(Ron=.1 Roff=1G Vt=Vt)
TEXT -112 416 Left 2 !.model Relay2NC SW(Ron=1G Roff=.1 Vt=Vt)
TEXT -112 448 Left 2 !.param Vt=V
